Version 4
SHEET 1 880 680
WIRE 256 96 176 96
WIRE 400 96 336 96
WIRE 256 160 256 96
WIRE 400 160 400 96
WIRE 176 208 176 96
WIRE 336 208 336 96
WIRE 256 304 256 240
WIRE 400 304 400 240
WIRE 256 352 256 304
WIRE 400 352 400 304
WIRE 176 432 176 304
WIRE 336 432 336 304
WIRE 256 480 256 432
WIRE 400 480 400 432
WIRE 256 528 256 480
WIRE 400 528 400 480
WIRE 176 528 176 432
WIRE 336 528 336 432
FLAG 256 528 0
FLAG 400 528 0
SYMBOL voltage 176 192 R0
SYMATTR InstName V1
SYMATTR Value 12
SYMBOL nmos 256 160 R0
SYMATTR InstName Q1
SYMBOL nmos 400 160 R0
SYMATTR InstName Q2
SYMBOL nmos 256 352 R0
SYMATTR InstName Q3
SYMBOL nmos 400 352 R0
SYMATTR InstName Q4
SYMBOL res 296 240 R90
SYMATTR InstName Rmotor
SYMATTR Value 2
SYMBOL ind 296 304 R90
SYMATTR InstName Lmotor
SYMATTR Value 1m
SYMBOL voltage 176 416 R0
SYMATTR InstName Vg_fwd
SYMATTR Value PULSE(0 10 0 50n 50n 25u 50u)
SYMBOL voltage 336 416 R0
SYMATTR InstName Vg_rev
SYMATTR Value 0
TEXT 96 600 Left 2 !.tran 0 5m
